P5
18 36
255
PGGJNOLIBFJOevsmMJK]YMQQWNKMINX[]\MHKbiMPPSRcaTIFswYKGLKNYfh_ImrVOTvdKGKGJ\ihgQho\]ORTKGRHJ\fjjW`o]aEIPLGNKJVagkPSc`fHJIIINJJQ]b[IF`\YomLGHGMJHHNceSN^]nvkVEIHLIGGLY]a`[czjXFIHRFGMQSUcoi`uziUMHJ{DDFMNTZjea[\ZITJKCFILILOP^`XPQJYOJCEJLGGLM\_\SRSZWLEGOKIFKLOTVWPVUQMbCINHFGHIQSRUOcfUPoDKLFBJOUSNKOV^XSeiOOLGGQXWMPISOQ_eSwsTJGILINPQKKAH[|^xjMHLLLPRTQJK@KRP^phNYQQOSVXVJJCEGMaf_YLV\bWKIHFGW_kaYHWif\LJIJIZc}tӝ^[PKTLGCKUJM\bj|͈__XNY]EH`kOO\fKO^^WXWSX[DK]b[\]erpjcd`]Z^[GKYWXWZczdYbLQql{}~~~XiMZYjUfYl_o`lfqw^x}~|z{wysfbis